$-- Property  --$
PSHELL         1       1  0.0030       1               1
$-- Property  --$
PSHELL         2       1  0.0030       1               1
$-- Property  --$
PSHELL         3       2  0.0030       1               1
$-- Property  --$
PSHELL         4       2  0.0030       1               1
$-- Property  --$
PSHELL         5       2  0.0030       1               1
$-- Property  --$
PSHELL         6       2  0.0030       1               1
$-- Property  --$
PSHELL         7       2   0.051       1               1
$-- Property  --$
PSHELL         8       2   0.053       1               1
$-- Property  --$
PSHELL       100       2   0.051       1               1
$-- Property  --$
PSHELL       101       2   0.053       1               1
MAT1           1 7.3e+10            0.33 2.8e+03
MAT1           2 7.3e+10            0.33 2.8e+03
