SOL 101
CEND
TITLE = MSC.Nastran job for Single StructPart
ECHO = NONE
SUBCASE 1
   SUBTITLE=Default
   LOAD = 1
   SPC  = 2
   STRESS(SORT1,PUNCH,REAL,VONMISES,BILIN)=ALL
   DISPLACEMENT(SORT1,PUNCH,REAL)=ALL
$$------------------------------------------------------------------------------$
$$                                Bulk Data Cards                               $
$$------------------------------------------------------------------------------$
BEGIN BULK
PARAM   POST     0
PARAM   PRTMAXIM YES
GRID*                  1               0           -5.15              0.*
*                     0.
GRID*                  2               0-4.92111111111110.18197783926213*
*                     0.
GRID*                  3               0-4.69222222222220.24417219505279*
*                     0.
GRID*                  4               0-4.46333333333330.28263334904568*
*                     0.
GRID*                  5               0-4.23444444444440.30963833448441*
*                     0.
GRID*                  6               0-4.00555555555560.33016331307575*
*                     0.
GRID*                  7               0-3.77666666666670.34663741914316*
*                     0.
GRID*                  8               0-3.54777777777780.36033071465956*
*                     0.
GRID*                  9               0-3.31888888888890.37192481027687*
*                     0.
GRID*                 10               0           -3.090.38179070350997*
*                     0.
GRID*                 11               0-2.86111111111110.39013643710112*
*                     0.
GRID*                 12               0-2.63222222222220.39708851620934*
*                     0.
GRID*                 13               0-2.40333333333330.40273661944019*
*                     0.
GRID*                 14               0-2.17444444444440.40715692390252*
*                     0.
GRID*                 15               0-1.94555555555560.41042269667157*
*                     0.
GRID*                 16               0-1.71666666666670.41260735134482*
*                     0.
GRID*                 17               0-1.48777777777780.41378323210206*
*                     0.
GRID*                 18               0-1.25888888888890.41401823070834*
*                     0.
GRID*                 19               0           -1.030.41337161414533*
*                     0.
GRID*                 20               0-0.80111111111110.41188996338584*
*                     0.
$ ... 12488 like lines cut
CQUAD4         1       1       1       2      48      47
CQUAD4         2       1      47      48      94      93
CQUAD4         3       1      93      94     140     139
CQUAD4         4       1     139     140     186     185
CQUAD4         5       1     185     186     232     231
CQUAD4         6       1     231     232     278     277
CQUAD4         7       1     277     278     324     323
CQUAD4         8       2     323     324     370     369
CQUAD4         9       2     369     370     416     415
CQUAD4        10       2     415     416     462     461
CQUAD4        11       2     461     462     508     507
CQUAD4        12       2     507     508     554     553
CQUAD4        13       2     553     554     600     599
CQUAD4        14       2     599     600     646     645
CQUAD4        15       3     645     646     692     691
CQUAD4        16       3     691     692     738     737
CQUAD4        17       3     737     738     784     783
CQUAD4        18       3     783     784     830     829
CQUAD4        19       3     829     830     876     875
CQUAD4        20       3     875     876     922     921
$ ... 3400 like lines cut
CTRIA3      3421       7       1       2    1796
CTRIA3      3422       7       1    1796    3590
CTRIA3      3423       7       1    3590    5384
CTRIA3      3424       7       1    5384    7178
CQUAD4      3425       7       2       3    1797    1796
CQUAD4      3426       7    1796    1797    3591    3590
CQUAD4      3427       7    3590    3591    5385    5384
CQUAD4      3428       7    5384    5385    7179    7178
CQUAD4      3429       7       3       4    1798    1797
CQUAD4      3430       7    1797    1798    3592    3591
CQUAD4      3431       7    3591    3592    5386    5385
CQUAD4      3432       7    5385    5386    7180    7179
CQUAD4      3433       7       4       5    1799    1798
CQUAD4      3434       7    1798    1799    3593    3592
CQUAD4      3435       7    3592    3593    5387    5386
CQUAD4      3436       7    5386    5387    7181    7180
CQUAD4      3437       7       5       6    1800    1799
CQUAD4      3438       7    1799    1800    3594    3593
CQUAD4      3439       7    3593    3594    5388    5387
CQUAD4      3440       7    5387    5388    7182    7181
CQUAD4      3441       7       6       7    1801    1800
CQUAD4      3442       7    1800    1801    3595    3594
CQUAD4      3443       7    3594    3595    5389    5388
CQUAD4      3444       7    5388    5389    7183    7182
$ ... 152 like lines cut
CTRIA3      3597       7      45      46    1839
CTRIA3      3598       7    1839      46    3633
CTRIA3      3599       7    3633      46    5427
CTRIA3      3600       7    5427      46    7221
CTRIA3      3601       7      93      94    1888
CTRIA3      3602       7      93    1888    3682
CTRIA3      3603       7      93    3682    5476
CTRIA3      3604       7      93    5476    7270
CQUAD4      3605       7      94      95    1889    1888
CQUAD4      3606       7    1888    1889    3683    3682
CQUAD4      3607       7    3682    3683    5477    5476
CQUAD4      3608       7    5476    5477    7271    7270
CQUAD4      3609       7      95      96    1890    1889
CQUAD4      3610       7    1889    1890    3684    3683
CQUAD4      3611       7    3683    3684    5478    5477
CQUAD4      3612       7    5477    5478    7272    7271
CQUAD4      3613       7      96      97    1891    1890
CQUAD4      3614       7    1890    1891    3685    3684
CQUAD4      3615       7    3684    3685    5479    5478
CQUAD4      3616       7    5478    5479    7273    7272
CQUAD4      3617       7      97      98    1892    1891
CQUAD4      3618       7    1891    1892    3686    3685
CQUAD4      3619       7    3685    3686    5480    5479
CQUAD4      3620       7    5479    5480    7274    7273
CQUAD4      3621       7      98      99    1893    1892
CQUAD4      3622       7    1892    1893    3687    3686
CQUAD4      3623       7    3686    3687    5481    5480
CQUAD4      3624       7    5480    5481    7275    7274
$ ... 152 like lines cut
CTRIA3      3777       7     137     138    1931
CTRIA3      3778       7    1931     138    3725
CTRIA3      3779       7    3725     138    5519
CTRIA3      3780       7    5519     138    7313
CTRIA3      3781       7     185     186    1980
CTRIA3      3782       7     185    1980    3774
CTRIA3      3783       7     185    3774    5568
CTRIA3      3784       7     185    5568    7362
CQUAD4      3785       7     186     187    1981    1980
CQUAD4      3786       7    1980    1981    3775    3774
CQUAD4      3787       7    3774    3775    5569    5568
CQUAD4      3788       7    5568    5569    7363    7362
CQUAD4      3789       7     187     188    1982    1981
CQUAD4      3790       7    1981    1982    3776    3775
CQUAD4      3791       7    3775    3776    5570    5569
CQUAD4      3792       7    5569    5570    7364    7363
CQUAD4      3793       7     188     189    1983    1982
CQUAD4      3794       7    1982    1983    3777    3776
CQUAD4      3795       7    3776    3777    5571    5570
CQUAD4      3796       7    5570    5571    7365    7364
CQUAD4      3797       7     189     190    1984    1983
CQUAD4      3798       7    1983    1984    3778    3777
CQUAD4      3799       7    3777    3778    5572    5571
CQUAD4      3800       7    5571    5572    7366    7365
CQUAD4      3801       7     190     191    1985    1984
CQUAD4      3802       7    1984    1985    3779    3778
CQUAD4      3803       7    3778    3779    5573    5572
CQUAD4      3804       7    5572    5573    7367    7366
$ ... 152 like lines cut
CTRIA3      3957       7     229     230    2023
CTRIA3      3958       7    2023     230    3817
CTRIA3      3959       7    3817     230    5611
CTRIA3      3960       7    5611     230    7405
CTRIA3      3961       7     277     278    2072
CTRIA3      3962       7     277    2072    3866
CTRIA3      3963       7     277    3866    5660
CTRIA3      3964       7     277    5660    7454
CQUAD4      3965       7     278     279    2073    2072
CQUAD4      3966       7    2072    2073    3867    3866
CQUAD4      3967       7    3866    3867    5661    5660
CQUAD4      3968       7    5660    5661    7455    7454
CQUAD4      3969       7     279     280    2074    2073
CQUAD4      3970       7    2073    2074    3868    3867
CQUAD4      3971       7    3867    3868    5662    5661
CQUAD4      3972       7    5661    5662    7456    7455
CQUAD4      3973       7     280     281    2075    2074
CQUAD4      3974       7    2074    2075    3869    3868
CQUAD4      3975       7    3868    3869    5663    5662
CQUAD4      3976       7    5662    5663    7457    7456
CQUAD4      3977       7     281     282    2076    2075
CQUAD4      3978       7    2075    2076    3870    3869
CQUAD4      3979       7    3869    3870    5664    5663
CQUAD4      3980       7    5663    5664    7458    7457
CQUAD4      3981       7     282     283    2077    2076
CQUAD4      3982       7    2076    2077    3871    3870
CQUAD4      3983       7    3870    3871    5665    5664
CQUAD4      3984       7    5664    5665    7459    7458
$ ... 152 like lines cut
CTRIA3      4137       7     321     322    2115
CTRIA3      4138       7    2115     322    3909
CTRIA3      4139       7    3909     322    5703
CTRIA3      4140       7    5703     322    7497
CTRIA3      4141       7     369     370    2164
CTRIA3      4142       7     369    2164    3958
CTRIA3      4143       7     369    3958    5752
CTRIA3      4144       7     369    5752    7546
CQUAD4      4145       7     370     371    2165    2164
CQUAD4      4146       7    2164    2165    3959    3958
CQUAD4      4147       7    3958    3959    5753    5752
CQUAD4      4148       7    5752    5753    7547    7546
CQUAD4      4149       7     371     372    2166    2165
CQUAD4      4150       7    2165    2166    3960    3959
CQUAD4      4151       7    3959    3960    5754    5753
CQUAD4      4152       7    5753    5754    7548    7547
CQUAD4      4153       7     372     373    2167    2166
CQUAD4      4154       7    2166    2167    3961    3960
CQUAD4      4155       7    3960    3961    5755    5754
CQUAD4      4156       7    5754    5755    7549    7548
CQUAD4      4157       7     373     374    2168    2167
CQUAD4      4158       7    2167    2168    3962    3961
CQUAD4      4159       7    3961    3962    5756    5755
CQUAD4      4160       7    5755    5756    7550    7549
CQUAD4      4161       7     374     375    2169    2168
CQUAD4      4162       7    2168    2169    3963    3962
CQUAD4      4163       7    3962    3963    5757    5756
CQUAD4      4164       7    5756    5757    7551    7550
$ ... 152 like lines cut
CTRIA3      4317       7     413     414    2207
CTRIA3      4318       7    2207     414    4001
CTRIA3      4319       7    4001     414    5795
CTRIA3      4320       7    5795     414    7589
CTRIA3      4321       7     461     462    2256
CTRIA3      4322       7     461    2256    4050
CTRIA3      4323       7     461    4050    5844
CTRIA3      4324       7     461    5844    7638
CQUAD4      4325       7     462     463    2257    2256
CQUAD4      4326       7    2256    2257    4051    4050
CQUAD4      4327       7    4050    4051    5845    5844
CQUAD4      4328       7    5844    5845    7639    7638
CQUAD4      4329       7     463     464    2258    2257
CQUAD4      4330       7    2257    2258    4052    4051
CQUAD4      4331       7    4051    4052    5846    5845
CQUAD4      4332       7    5845    5846    7640    7639
CQUAD4      4333       7     464     465    2259    2258
CQUAD4      4334       7    2258    2259    4053    4052
CQUAD4      4335       7    4052    4053    5847    5846
CQUAD4      4336       7    5846    5847    7641    7640
CQUAD4      4337       7     465     466    2260    2259
CQUAD4      4338       7    2259    2260    4054    4053
CQUAD4      4339       7    4053    4054    5848    5847
CQUAD4      4340       7    5847    5848    7642    7641
CQUAD4      4341       7     466     467    2261    2260
CQUAD4      4342       7    2260    2261    4055    4054
CQUAD4      4343       7    4054    4055    5849    5848
CQUAD4      4344       7    5848    5849    7643    7642
$ ... 152 like lines cut
CTRIA3      4497       7     505     506    2299
CTRIA3      4498       7    2299     506    4093
CTRIA3      4499       7    4093     506    5887
CTRIA3      4500       7    5887     506    7681
CTRIA3      4501       7     553     554    2348
CTRIA3      4502       7     553    2348    4142
CTRIA3      4503       7     553    4142    5936
CTRIA3      4504       7     553    5936    7730
CQUAD4      4505       7     554     555    2349    2348
CQUAD4      4506       7    2348    2349    4143    4142
CQUAD4      4507       7    4142    4143    5937    5936
CQUAD4      4508       7    5936    5937    7731    7730
CQUAD4      4509       7     555     556    2350    2349
CQUAD4      4510       7    2349    2350    4144    4143
CQUAD4      4511       7    4143    4144    5938    5937
CQUAD4      4512       7    5937    5938    7732    7731
CQUAD4      4513       7     556     557    2351    2350
CQUAD4      4514       7    2350    2351    4145    4144
CQUAD4      4515       7    4144    4145    5939    5938
CQUAD4      4516       7    5938    5939    7733    7732
CQUAD4      4517       7     557     558    2352    2351
CQUAD4      4518       7    2351    2352    4146    4145
CQUAD4      4519       7    4145    4146    5940    5939
CQUAD4      4520       7    5939    5940    7734    7733
CQUAD4      4521       7     558     559    2353    2352
CQUAD4      4522       7    2352    2353    4147    4146
CQUAD4      4523       7    4146    4147    5941    5940
CQUAD4      4524       7    5940    5941    7735    7734
$ ... 152 like lines cut
CTRIA3      4677       7     597     598    2391
CTRIA3      4678       7    2391     598    4185
CTRIA3      4679       7    4185     598    5979
CTRIA3      4680       7    5979     598    7773
CTRIA3      4681       7     645     646    2440
CTRIA3      4682       7     645    2440    4234
CTRIA3      4683       7     645    4234    6028
CTRIA3      4684       7     645    6028    7822
CQUAD4      4685       7     646     647    2441    2440
CQUAD4      4686       7    2440    2441    4235    4234
CQUAD4      4687       7    4234    4235    6029    6028
CQUAD4      4688       7    6028    6029    7823    7822
CQUAD4      4689       7     647     648    2442    2441
CQUAD4      4690       7    2441    2442    4236    4235
CQUAD4      4691       7    4235    4236    6030    6029
CQUAD4      4692       7    6029    6030    7824    7823
CQUAD4      4693       7     648     649    2443    2442
CQUAD4      4694       7    2442    2443    4237    4236
CQUAD4      4695       7    4236    4237    6031    6030
CQUAD4      4696       7    6030    6031    7825    7824
CQUAD4      4697       7     649     650    2444    2443
CQUAD4      4698       7    2443    2444    4238    4237
CQUAD4      4699       7    4237    4238    6032    6031
CQUAD4      4700       7    6031    6032    7826    7825
CQUAD4      4701       7     650     651    2445    2444
CQUAD4      4702       7    2444    2445    4239    4238
CQUAD4      4703       7    4238    4239    6033    6032
CQUAD4      4704       7    6032    6033    7827    7826
$ ... 152 like lines cut
CTRIA3      4857       7     689     690    2483
CTRIA3      4858       7    2483     690    4277
CTRIA3      4859       7    4277     690    6071
CTRIA3      4860       7    6071     690    7865
CTRIA3      4861       7     737     738    2532
CTRIA3      4862       7     737    2532    4326
CTRIA3      4863       7     737    4326    6120
CTRIA3      4864       7     737    6120    7914
CQUAD4      4865       7     738     739    2533    2532
CQUAD4      4866       7    2532    2533    4327    4326
CQUAD4      4867       7    4326    4327    6121    6120
CQUAD4      4868       7    6120    6121    7915    7914
CQUAD4      4869       7     739     740    2534    2533
CQUAD4      4870       7    2533    2534    4328    4327
CQUAD4      4871       7    4327    4328    6122    6121
CQUAD4      4872       7    6121    6122    7916    7915
CQUAD4      4873       7     740     741    2535    2534
CQUAD4      4874       7    2534    2535    4329    4328
CQUAD4      4875       7    4328    4329    6123    6122
CQUAD4      4876       7    6122    6123    7917    7916
CQUAD4      4877       7     741     742    2536    2535
CQUAD4      4878       7    2535    2536    4330    4329
CQUAD4      4879       7    4329    4330    6124    6123
CQUAD4      4880       7    6123    6124    7918    7917
CQUAD4      4881       7     742     743    2537    2536
CQUAD4      4882       7    2536    2537    4331    4330
CQUAD4      4883       7    4330    4331    6125    6124
CQUAD4      4884       7    6124    6125    7919    7918
$ ... 152 like lines cut
CTRIA3      5037       7     781     782    2575
CTRIA3      5038       7    2575     782    4369
CTRIA3      5039       7    4369     782    6163
CTRIA3      5040       7    6163     782    7957
CTRIA3      5041       7     829     830    2624
CTRIA3      5042       7     829    2624    4418
CTRIA3      5043       7     829    4418    6212
CTRIA3      5044       7     829    6212    8006
CQUAD4      5045       7     830     831    2625    2624
CQUAD4      5046       7    2624    2625    4419    4418
CQUAD4      5047       7    4418    4419    6213    6212
CQUAD4      5048       7    6212    6213    8007    8006
CQUAD4      5049       7     831     832    2626    2625
CQUAD4      5050       7    2625    2626    4420    4419
CQUAD4      5051       7    4419    4420    6214    6213
CQUAD4      5052       7    6213    6214    8008    8007
CQUAD4      5053       7     832     833    2627    2626
CQUAD4      5054       7    2626    2627    4421    4420
CQUAD4      5055       7    4420    4421    6215    6214
CQUAD4      5056       7    6214    6215    8009    8008
CQUAD4      5057       7     833     834    2628    2627
CQUAD4      5058       7    2627    2628    4422    4421
CQUAD4      5059       7    4421    4422    6216    6215
CQUAD4      5060       7    6215    6216    8010    8009
CQUAD4      5061       7     834     835    2629    2628
CQUAD4      5062       7    2628    2629    4423    4422
CQUAD4      5063       7    4422    4423    6217    6216
CQUAD4      5064       7    6216    6217    8011    8010
$ ... 152 like lines cut
CTRIA3      5217       7     873     874    2667
CTRIA3      5218       7    2667     874    4461
CTRIA3      5219       7    4461     874    6255
CTRIA3      5220       7    6255     874    8049
CTRIA3      5221       7     921     922    2716
CTRIA3      5222       7     921    2716    4510
CTRIA3      5223       7     921    4510    6304
CTRIA3      5224       7     921    6304    8098
CQUAD4      5225       7     922     923    2717    2716
CQUAD4      5226       7    2716    2717    4511    4510
CQUAD4      5227       7    4510    4511    6305    6304
CQUAD4      5228       7    6304    6305    8099    8098
CQUAD4      5229       7     923     924    2718    2717
CQUAD4      5230       7    2717    2718    4512    4511
CQUAD4      5231       7    4511    4512    6306    6305
CQUAD4      5232       7    6305    6306    8100    8099
CQUAD4      5233       7     924     925    2719    2718
CQUAD4      5234       7    2718    2719    4513    4512
CQUAD4      5235       7    4512    4513    6307    6306
CQUAD4      5236       7    6306    6307    8101    8100
CQUAD4      5237       7     925     926    2720    2719
CQUAD4      5238       7    2719    2720    4514    4513
CQUAD4      5239       7    4513    4514    6308    6307
CQUAD4      5240       7    6307    6308    8102    8101
CQUAD4      5241       7     926     927    2721    2720
CQUAD4      5242       7    2720    2721    4515    4514
CQUAD4      5243       7    4514    4515    6309    6308
CQUAD4      5244       7    6308    6309    8103    8102
$ ... 152 like lines cut
CTRIA3      5397       7     965     966    2759
CTRIA3      5398       7    2759     966    4553
CTRIA3      5399       7    4553     966    6347
CTRIA3      5400       7    6347     966    8141
CTRIA3      5401       7    1013    1014    2808
CTRIA3      5402       7    1013    2808    4602
CTRIA3      5403       7    1013    4602    6396
CTRIA3      5404       7    1013    6396    8190
CQUAD4      5405       7    1014    1015    2809    2808
CQUAD4      5406       7    2808    2809    4603    4602
CQUAD4      5407       7    4602    4603    6397    6396
CQUAD4      5408       7    6396    6397    8191    8190
CQUAD4      5409       7    1015    1016    2810    2809
CQUAD4      5410       7    2809    2810    4604    4603
CQUAD4      5411       7    4603    4604    6398    6397
CQUAD4      5412       7    6397    6398    8192    8191
CQUAD4      5413       7    1016    1017    2811    2810
CQUAD4      5414       7    2810    2811    4605    4604
CQUAD4      5415       7    4604    4605    6399    6398
CQUAD4      5416       7    6398    6399    8193    8192
CQUAD4      5417       7    1017    1018    2812    2811
CQUAD4      5418       7    2811    2812    4606    4605
CQUAD4      5419       7    4605    4606    6400    6399
CQUAD4      5420       7    6399    6400    8194    8193
CQUAD4      5421       7    1018    1019    2813    2812
CQUAD4      5422       7    2812    2813    4607    4606
CQUAD4      5423       7    4606    4607    6401    6400
CQUAD4      5424       7    6400    6401    8195    8194
$ ... 152 like lines cut
CTRIA3      5577       7    1057    1058    2851
CTRIA3      5578       7    2851    1058    4645
CTRIA3      5579       7    4645    1058    6439
CTRIA3      5580       7    6439    1058    8233
CTRIA3      5581       7    1105    1106    2900
CTRIA3      5582       7    1105    2900    4694
CTRIA3      5583       7    1105    4694    6488
CTRIA3      5584       7    1105    6488    8282
CQUAD4      5585       7    1106    1107    2901    2900
CQUAD4      5586       7    2900    2901    4695    4694
CQUAD4      5587       7    4694    4695    6489    6488
CQUAD4      5588       7    6488    6489    8283    8282
CQUAD4      5589       7    1107    1108    2902    2901
CQUAD4      5590       7    2901    2902    4696    4695
CQUAD4      5591       7    4695    4696    6490    6489
CQUAD4      5592       7    6489    6490    8284    8283
CQUAD4      5593       7    1108    1109    2903    2902
CQUAD4      5594       7    2902    2903    4697    4696
CQUAD4      5595       7    4696    4697    6491    6490
CQUAD4      5596       7    6490    6491    8285    8284
CQUAD4      5597       7    1109    1110    2904    2903
CQUAD4      5598       7    2903    2904    4698    4697
CQUAD4      5599       7    4697    4698    6492    6491
CQUAD4      5600       7    6491    6492    8286    8285
CQUAD4      5601       7    1110    1111    2905    2904
CQUAD4      5602       7    2904    2905    4699    4698
CQUAD4      5603       7    4698    4699    6493    6492
CQUAD4      5604       7    6492    6493    8287    8286
$ ... 152 like lines cut
CTRIA3      5757       7    1149    1150    2943
CTRIA3      5758       7    2943    1150    4737
CTRIA3      5759       7    4737    1150    6531
CTRIA3      5760       7    6531    1150    8325
CTRIA3      5761       7    1197    1198    2992
CTRIA3      5762       7    1197    2992    4786
CTRIA3      5763       7    1197    4786    6580
CTRIA3      5764       7    1197    6580    8374
CQUAD4      5765       7    1198    1199    2993    2992
CQUAD4      5766       7    2992    2993    4787    4786
CQUAD4      5767       7    4786    4787    6581    6580
CQUAD4      5768       7    6580    6581    8375    8374
CQUAD4      5769       7    1199    1200    2994    2993
CQUAD4      5770       7    2993    2994    4788    4787
CQUAD4      5771       7    4787    4788    6582    6581
CQUAD4      5772       7    6581    6582    8376    8375
CQUAD4      5773       7    1200    1201    2995    2994
CQUAD4      5774       7    2994    2995    4789    4788
CQUAD4      5775       7    4788    4789    6583    6582
CQUAD4      5776       7    6582    6583    8377    8376
CQUAD4      5777       7    1201    1202    2996    2995
CQUAD4      5778       7    2995    2996    4790    4789
CQUAD4      5779       7    4789    4790    6584    6583
CQUAD4      5780       7    6583    6584    8378    8377
CQUAD4      5781       7    1202    1203    2997    2996
CQUAD4      5782       7    2996    2997    4791    4790
CQUAD4      5783       7    4790    4791    6585    6584
CQUAD4      5784       7    6584    6585    8379    8378
$ ... 152 like lines cut
CTRIA3      5937       7    1241    1242    3035
CTRIA3      5938       7    3035    1242    4829
CTRIA3      5939       7    4829    1242    6623
CTRIA3      5940       7    6623    1242    8417
CTRIA3      5941       7    1289    1290    3084
CTRIA3      5942       7    1289    3084    4878
CTRIA3      5943       7    1289    4878    6672
CTRIA3      5944       7    1289    6672    8466
CQUAD4      5945       7    1290    1291    3085    3084
CQUAD4      5946       7    3084    3085    4879    4878
CQUAD4      5947       7    4878    4879    6673    6672
CQUAD4      5948       7    6672    6673    8467    8466
CQUAD4      5949       7    1291    1292    3086    3085
CQUAD4      5950       7    3085    3086    4880    4879
CQUAD4      5951       7    4879    4880    6674    6673
CQUAD4      5952       7    6673    6674    8468    8467
CQUAD4      5953       7    1292    1293    3087    3086
CQUAD4      5954       7    3086    3087    4881    4880
CQUAD4      5955       7    4880    4881    6675    6674
CQUAD4      5956       7    6674    6675    8469    8468
CQUAD4      5957       7    1293    1294    3088    3087
CQUAD4      5958       7    3087    3088    4882    4881
CQUAD4      5959       7    4881    4882    6676    6675
CQUAD4      5960       7    6675    6676    8470    8469
CQUAD4      5961       7    1294    1295    3089    3088
CQUAD4      5962       7    3088    3089    4883    4882
CQUAD4      5963       7    4882    4883    6677    6676
CQUAD4      5964       7    6676    6677    8471    8470
$ ... 152 like lines cut
CTRIA3      6117       7    1333    1334    3127
CTRIA3      6118       7    3127    1334    4921
CTRIA3      6119       7    4921    1334    6715
CTRIA3      6120       7    6715    1334    8509
CTRIA3      6121       7    1381    1382    3176
CTRIA3      6122       7    1381    3176    4970
CTRIA3      6123       7    1381    4970    6764
CTRIA3      6124       7    1381    6764    8558
CQUAD4      6125       7    1382    1383    3177    3176
CQUAD4      6126       7    3176    3177    4971    4970
CQUAD4      6127       7    4970    4971    6765    6764
CQUAD4      6128       7    6764    6765    8559    8558
CQUAD4      6129       7    1383    1384    3178    3177
CQUAD4      6130       7    3177    3178    4972    4971
CQUAD4      6131       7    4971    4972    6766    6765
CQUAD4      6132       7    6765    6766    8560    8559
CQUAD4      6133       7    1384    1385    3179    3178
CQUAD4      6134       7    3178    3179    4973    4972
CQUAD4      6135       7    4972    4973    6767    6766
CQUAD4      6136       7    6766    6767    8561    8560
CQUAD4      6137       7    1385    1386    3180    3179
CQUAD4      6138       7    3179    3180    4974    4973
CQUAD4      6139       7    4973    4974    6768    6767
CQUAD4      6140       7    6767    6768    8562    8561
CQUAD4      6141       7    1386    1387    3181    3180
CQUAD4      6142       7    3180    3181    4975    4974
CQUAD4      6143       7    4974    4975    6769    6768
CQUAD4      6144       7    6768    6769    8563    8562
$ ... 152 like lines cut
CTRIA3      6297       7    1425    1426    3219
CTRIA3      6298       7    3219    1426    5013
CTRIA3      6299       7    5013    1426    6807
CTRIA3      6300       7    6807    1426    8601
CTRIA3      6301       7    1473    1474    3268
CTRIA3      6302       7    1473    3268    5062
CTRIA3      6303       7    1473    5062    6856
CTRIA3      6304       7    1473    6856    8650
CQUAD4      6305       7    1474    1475    3269    3268
CQUAD4      6306       7    3268    3269    5063    5062
CQUAD4      6307       7    5062    5063    6857    6856
CQUAD4      6308       7    6856    6857    8651    8650
CQUAD4      6309       7    1475    1476    3270    3269
CQUAD4      6310       7    3269    3270    5064    5063
CQUAD4      6311       7    5063    5064    6858    6857
CQUAD4      6312       7    6857    6858    8652    8651
CQUAD4      6313       7    1476    1477    3271    3270
CQUAD4      6314       7    3270    3271    5065    5064
CQUAD4      6315       7    5064    5065    6859    6858
CQUAD4      6316       7    6858    6859    8653    8652
CQUAD4      6317       7    1477    1478    3272    3271
CQUAD4      6318       7    3271    3272    5066    5065
CQUAD4      6319       7    5065    5066    6860    6859
CQUAD4      6320       7    6859    6860    8654    8653
CQUAD4      6321       7    1478    1479    3273    3272
CQUAD4      6322       7    3272    3273    5067    5066
CQUAD4      6323       7    5066    5067    6861    6860
CQUAD4      6324       7    6860    6861    8655    8654
$ ... 152 like lines cut
CTRIA3      6477       7    1517    1518    3311
CTRIA3      6478       7    3311    1518    5105
CTRIA3      6479       7    5105    1518    6899
CTRIA3      6480       7    6899    1518    8693
CTRIA3      6481       7    1565    1566    3360
CTRIA3      6482       7    1565    3360    5154
CTRIA3      6483       7    1565    5154    6948
CTRIA3      6484       7    1565    6948    8742
CQUAD4      6485       7    1566    1567    3361    3360
CQUAD4      6486       7    3360    3361    5155    5154
CQUAD4      6487       7    5154    5155    6949    6948
CQUAD4      6488       7    6948    6949    8743    8742
CQUAD4      6489       7    1567    1568    3362    3361
CQUAD4      6490       7    3361    3362    5156    5155
CQUAD4      6491       7    5155    5156    6950    6949
CQUAD4      6492       7    6949    6950    8744    8743
CQUAD4      6493       7    1568    1569    3363    3362
CQUAD4      6494       7    3362    3363    5157    5156
CQUAD4      6495       7    5156    5157    6951    6950
CQUAD4      6496       7    6950    6951    8745    8744
CQUAD4      6497       7    1569    1570    3364    3363
CQUAD4      6498       7    3363    3364    5158    5157
CQUAD4      6499       7    5157    5158    6952    6951
CQUAD4      6500       7    6951    6952    8746    8745
CQUAD4      6501       7    1570    1571    3365    3364
CQUAD4      6502       7    3364    3365    5159    5158
CQUAD4      6503       7    5158    5159    6953    6952
CQUAD4      6504       7    6952    6953    8747    8746
$ ... 152 like lines cut
CTRIA3      6657       7    1609    1610    3403
CTRIA3      6658       7    3403    1610    5197
CTRIA3      6659       7    5197    1610    6991
CTRIA3      6660       7    6991    1610    8785
CTRIA3      6661     100    1657    1658    3452
CTRIA3      6662     100    1657    3452    5246
CTRIA3      6663     100    1657    5246    7040
CTRIA3      6664     100    1657    7040    8834
CQUAD4      6665     100    1658    1659    3453    3452
CQUAD4      6666     100    3452    3453    5247    5246
CQUAD4      6667     100    5246    5247    7041    7040
CQUAD4      6668     100    7040    7041    8835    8834
CQUAD4      6669     100    1659    1660    3454    3453
CQUAD4      6670     100    3453    3454    5248    5247
CQUAD4      6671     100    5247    5248    7042    7041
CQUAD4      6672     100    7041    7042    8836    8835
CQUAD4      6673     100    1660    1661    3455    3454
CQUAD4      6674     100    3454    3455    5249    5248
CQUAD4      6675     100    5248    5249    7043    7042
CQUAD4      6676     100    7042    7043    8837    8836
CQUAD4      6677     100    1661    1662    3456    3455
CQUAD4      6678     100    3455    3456    5250    5249
CQUAD4      6679     100    5249    5250    7044    7043
CQUAD4      6680     100    7043    7044    8838    8837
CQUAD4      6681     100    1662    1663    3457    3456
CQUAD4      6682     100    3456    3457    5251    5250
CQUAD4      6683     100    5250    5251    7045    7044
CQUAD4      6684     100    7044    7045    8839    8838
$ ... 152 like lines cut
CTRIA3      6837     100    1701    1702    3495
CTRIA3      6838     100    3495    1702    5289
CTRIA3      6839     100    5289    1702    7083
CTRIA3      6840     100    7083    1702    8877
CTRIA3      6841       7    1749    1750    3544
CTRIA3      6842       7    1749    3544    5338
CTRIA3      6843       7    1749    5338    7132
CTRIA3      6844       7    1749    7132    8926
CQUAD4      6845       7    1750    1751    3545    3544
CQUAD4      6846       7    3544    3545    5339    5338
CQUAD4      6847       7    5338    5339    7133    7132
CQUAD4      6848       7    7132    7133    8927    8926
CQUAD4      6849       7    1751    1752    3546    3545
CQUAD4      6850       7    3545    3546    5340    5339
CQUAD4      6851       7    5339    5340    7134    7133
CQUAD4      6852       7    7133    7134    8928    8927
CQUAD4      6853       7    1752    1753    3547    3546
CQUAD4      6854       7    3546    3547    5341    5340
CQUAD4      6855       7    5340    5341    7135    7134
CQUAD4      6856       7    7134    7135    8929    8928
CQUAD4      6857       7    1753    1754    3548    3547
CQUAD4      6858       7    3547    3548    5342    5341
CQUAD4      6859       7    5341    5342    7136    7135
CQUAD4      6860       7    7135    7136    8930    8929
CQUAD4      6861       7    1754    1755    3549    3548
CQUAD4      6862       7    3548    3549    5343    5342
CQUAD4      6863       7    5342    5343    7137    7136
CQUAD4      6864       7    7136    7137    8931    8930
$ ... 152 like lines cut
CTRIA3      7017       7    1793    1794    3587
CTRIA3      7018       7    3587    1794    5381
CTRIA3      7019       7    5381    1794    7175
CTRIA3      7020       7    7175    1794    8969
CQUAD4      7021       8      16      62    1856    1810
CQUAD4      7022       8    1810    1856    3650    3604
CQUAD4      7023       8    3604    3650    5444    5398
CQUAD4      7024       8    5398    5444    7238    7192
CQUAD4      7025       8      62     108    1902    1856
CQUAD4      7026       8    1856    1902    3696    3650
CQUAD4      7027       8    3650    3696    5490    5444
CQUAD4      7028       8    5444    5490    7284    7238
CQUAD4      7029       8     108     154    1948    1902
CQUAD4      7030       8    1902    1948    3742    3696
CQUAD4      7031       8    3696    3742    5536    5490
CQUAD4      7032       8    5490    5536    7330    7284
CQUAD4      7033       8     154     200    1994    1948
CQUAD4      7034       8    1948    1994    3788    3742
CQUAD4      7035       8    3742    3788    5582    5536
CQUAD4      7036       8    5536    5582    7376    7330
CQUAD4      7037       8     200     246    2040    1994
CQUAD4      7038       8    1994    2040    3834    3788
CQUAD4      7039       8    3788    3834    5628    5582
CQUAD4      7040       8    5582    5628    7422    7376
$ ... 284 like lines cut
FORCE*                 1               1               0              1.*
*       -103.05944758232-117.57848839405              0.
FORCE*                 1               2               0              1.*
*       -35.049995057821-26.099930689275              0.
FORCE*                 1               3               0              1.*
*       18.909386431806795.6722750491187              0.
FORCE*                 1               4               0              1.*
*       21.2428979718036151.055522580954              0.
FORCE*                 1               5               0              1.*
*       17.5959878274102170.113871545144              0.
FORCE*                 1               6               0              1.*
*       14.1870569622595175.620211294986              0.
FORCE*                 1               7               0              1.*
*        11.604190658256176.054439040017              0.
FORCE*                 1               8               0              1.*
*       9.68301249120714175.256286169229              0.
FORCE*                 1               9               0              1.*
*       8.17993193279476174.462078083275              0.
FORCE*                 1              10               0              1.*
*       6.91942793277872173.915824936453              0.
FORCE*                 1              11               0              1.*
*       5.80568258639531173.730880882508              0.
FORCE*                 1              12               0              1.*
*       4.78168775779436173.723707899477              0.
FORCE*                 1              13               0              1.*
*       3.82089565565953173.723708456649              0.
FORCE*                 1              14               0              1.*
*       2.91681664978651173.723709020231              0.
FORCE*                 1              15               0              1.*
*       2.06840200591038173.723709589842              0.
FORCE*                 1              16               0              1.*
*       1.27524639300332173.712985044322              0.
FORCE*                 1              17               0              1.*
*       0.53521177698267173.564224452348              0.
FORCE*                 1              18               0              1.*
*       -0.1532602961314 172.47804127582              0.
FORCE*                 1              19               0              1.*
*       -0.7820210216653169.144168878754              0.
FORCE*                 1              20               0              1.*
*        -1.274963756636156.989954238474              0.
$ ... 6980 like lines cut
SPC1           2  123456       1       2       3       4       5       6
               7       8       9      10      11      12      13      14
              15      16      17      18      19      20      21      22
              23      24      25      26      27      28      29      30
              31      32      33      34      35      36      37      38
              39      40      41      42      43      44      45      46
            7178    7179    7180    7181    7182    7183    7184    7185
            7186    7187    7188    7189    7190    7191    7192    7193
            7194    7195    7196    7197    7198    7199    7200    7201
            7202    7203    7204    7205    7206    7207    7208    7209
            7210    7211    7212    7213    7214    7215    7216    7217
            7218    7219    7220    7221    1810    3604    5398    7192
            1825    3619    5413    7207
$-- Property  --$
PSHELL         1       1   0.003       1               1
$-- Property  --$
PSHELL         2       1   0.003       1               1
$-- Property  --$
PSHELL         3       2   0.003       1               1
$-- Property  --$
PSHELL         4       2   0.003       1               1
$-- Property  --$
PSHELL         5       2   0.003       1               1
$-- Property  --$
PSHELL         6       2   0.003       1               1
$-- Property  --$
PSHELL         7       2   0.051       1               1
$-- Property  --$
PSHELL         8       2   0.053       1               1
$-- Property  --$
PSHELL       100       2   0.051       1               1
$-- Property  --$
PSHELL       101       2   0.053       1               1
$-- Material  --$
MAT1           1 7.3e+10            0.33   2800.
$-- Material  --$
MAT1           2 7.3e+10            0.33   2800.
ENDDATA
